<?xml version="1.0" encoding="UTF-8"?>

<!-- generated on 2022-11-21 16:42:00 by Eclipse SUMO duarouter Version 1.14.1
<configuration xmlns:xsi="http://www.w3.org/2001/XMLSchema-instance" xsi:noNamespaceSchemaLocation="http://sumo.dlr.de/xsd/duarouterConfiguration.xsd">

    <input>
        <net-file value="IbarraTriangleMap.net.xml"/>
        <additional-files value="example.xml"/>
        <route-files value="trips.trips.xml"/>
    </input>

    <output>
        <output-file value="output.routes.xml"/>
    </output>

</configuration>
-->

<routes xmlns:xsi="http://www.w3.org/2001/XMLSchema-instance" xsi:noNamespaceSchemaLocation="http://sumo.dlr.de/xsd/routes_file.xsd">
    <vType id="type1" length="2.14" maxSpeed="4.75" speedFactor="normc(1.03,3.98,0.20,2.00)" accel="0.8325323633705738" decel="0.3088601013723502"/>
    <vehicle id="0" type="type1" depart="0.00">
        <route edges="51962227#1 53960640#0 53960640#1 53960640#2 53960640#3 53960640#4 g20d g20c g20b 352157050#0 c6a -203827231#10 -203827231#9 k3a k3b 454986626#0 454986626#1 51962151#0 51962151#1 51962151#2 b21a b20a b19a b18 b17 b16 b15 b14 b13 b12 b11 287413563#6 j7 j8a j9a j10a j11a j12a j13a 164214136#11 164214136#12 364714300#0 364714300#1 364714300#2 364714300#3 200176581#0 200176581#1 200176581#2 200176581#3 200176581#4 -51961489#4 -51961489#3 -51961489#2 -51961489#1 -51961489#0 51961762#7 51961762#8 51961762#9 -164214172#2 -164214172#1 -164214172#0 -164214165 -164214176#4 -164214176#3 -164214176#2 -164214176#1"/>
    </vehicle>
    <vehicle id="1" type="type1" depart="1.00">
        <route edges="-882159569#2 882159569#2 379488439#1 379488439#2 379488439#3 379488439#4 379488439#5 379488439#6 379488439#7 379488439#8 b17b b16b b15b b14b b13b b12b b11a b10 b9 b8 b7 b6 b5 b4 b3 b2 b1 u6 u7 e1 e2 e3 e4 e5 e6 e7 e8 e9 e10 e11 -893597736 i12a 203820096#5 -51962487#2 -51962487#1 -51962487#0 51962466#8 -51962466#8"/>
    </vehicle>
    <vehicle id="2" type="type1" depart="2.00">
        <route edges="51962474#1 51962474#2 51962474#3 51962496#1 51962496#2 51962496#3 51962496#4 51962496#5 51962496#6 51962496#7 51962496#8 51962496#9 107258445#2 107258445#3 51962368#0 51962368#1 51962368#2 51962368#3 51962368#4 51962368#5 51962368#6"/>
    </vehicle>
    <vehicle id="3" type="type1" depart="3.00">
        <route edges="b10 b9 b8 b7 b6 b5 b4 b3 b2 b1 u6 u7 u1 u2 h1 h2 h3 h4 h5 h6 h6a -409619704#1"/>
    </vehicle>
    <vehicle id="4" type="type1" depart="4.00">
        <route edges="203827231#9 203827231#10 -203827231#10 -203827231#9 k4 k5 k6 k7 51962119#3 51962119#4 51962119#5 51962119#6 51962119#7 51962119#8 51962119#9 51962119#10 51962119#11 51962119#12 888512947#0 -164214181#3 -164214181#2 -164214181#1 -164214181#0 164214179#1 -164214178#3 831465675#1 -164214182#2 -164214182#1 -164214182#0"/>
    </vehicle>
    <vehicle id="5" type="type1" depart="5.00">
        <route edges="-51962460#1 -51962460#0 203820096#4 i12b i11 i10 i9 i8 i7 i6 i5 i4 i3 i2 i1 u2 h1 h2 245084749 d3a 51961484#1 149641267#0 149641267#1 149641267#2 364716378#0 364716378#1 409619706#0"/>
    </vehicle>
    <vehicle id="6" type="type1" depart="6.00">
        <route edges="-164214179#1 164214181#0 164214181#1 164214181#2 164214181#3 888512947#1 -200501965#7 107262525#2 142988867#0 142988867#1 c0g c0f c0e c0d c0c c0b c0a c1 c2 c3 c4 c5 c6 c7a c7b g18 g19 g20 g20a0 x24235343522fs 107261008#2 107261009#0 107261009#1 51962533#7 51962533#8 -51962531 -51962527 51962383#0 -51962383#0"/>
    </vehicle>
    <vehicle id="8" type="type1" depart="8.00">
        <route edges="-51962466#1 51962466#1 110467768#6 -203820096#7 -203820096#6 -203820096#5 i12b 893597736 e12b 51962382#1 51962382#2 c14c c14a 365224885#1 f15 f16 f17 f18 f19 f20 f21 f22 f23 k1 k2 k3 k4 k5 k6 106704913#0 c4a 106704913#2 106704913#3 51962202#2 51962202#3 51962202#4 107260746#1 107260746#2 107260746#3 107260746#4 107260746#5 107260746#6 107259946#0 107259946#1 107259946#2 107259946#3 107259946#4 107373856#8 771998437 51962063#0 51962063#1 51962078#0 51962078#1"/>
    </vehicle>
    <vehicle id="9" type="type1" depart="9.00">
        <route edges="51962648#9 -51962464#3 -51962464#2 -51962464#1 51962485#1 51962471#4 203820096#10 203820096#11 203820096#12 203820096#13 203820096#14 203820096#15 203820096#16 203820096#17 203820096#18 203820096#19 203820096#20 51961452#0 51961452#1 51961452#2 51961452#3 h2 245084749 d3a 51961484#1 149641267#0 149641267#1 149641267#2 -149641267#2"/>
    </vehicle>
    <vehicle id="10" type="type1" depart="10.00">
        <route edges="51962635#1 51962353#2 -51962626#1 -51962626#0 51962484#9 215325073#0 215325073#1 -51962365#11 51962345#0 51962345#1 51962345#2 51962345#3 51962345#4 51962345#5 51962466#7 51962487#0 51962487#1 51962487#2 -203820096#5 i12b 893597736 e12b 51962382#1 51962398#1"/>
    </vehicle>
    <vehicle id="11" type="type1" depart="11.00">
        <route edges="109190298#3 107379321#3 c0 772000483 142988873#0 142988873#1 142988873#2 b22 b21 b20 200176602#0 200176602#1 -51962177#8 -51962177#7"/>
    </vehicle>
    <vehicle id="12" type="type1" depart="12.00">
        <route edges="g3 -51961475#2 a18a e3a e4 e5 e6 e7 e8 e9 e10 e11 e12 e13 e14 e15 e16 e17 e18 e19 e20 e21 e22 409566603 107627053#0 409566596 107644626#0 107644626#1 107644626#2"/>
    </vehicle>
    <vehicle id="13" type="type1" depart="13.00">
        <route edges="-49732158#4 -49732158#3 -49732158#2 142988867#0 142988867#1 107373857#17 107373857#18 107373857#19 107373857#20 107373857#21 107373857#22 107373857#23 -365033182#10 -365033182#9 -365033182#8 -365033182#7 -365033182#6 -365033182#5 -365033182#4 -365033182#3 b8a b2a b1a b4 b3 b2 b1 u6 u7 u1 u2 h1 h1a -51961452#2 -51961452#1"/>
    </vehicle>
    <vehicle id="14" type="type1" depart="14.00">
        <route edges="750471837#3 750471837#4 750471837#5 -579739888#3 -579739888#2 -579739888#1 -579739888#0 i14a i13 527480049 e13 e13a 31245344#1 31245344#2 31245344#3 31245344#4 53960644#0 x1 53960644#2 g19a c6a -203827231#10 -203827231#9 k4 k5 k6 106704913#0 c4a 51962212#0 51962212#1 759891911 109190298#3 107379321#3 107379321#4 107379321#5 106705258#0 106705258#1 106705258#2 229477270#2 51962117#3"/>
    </vehicle>
    <vehicle id="15" type="type1" depart="15.00">
        <route edges="51962648#12 51962474#3 51962496#1 51962496#2 51962496#3 -51962464#2 -51962464#1 -51962464#0 51962466#0 51962466#1 51962466#2 51962466#3 51962466#4 51962466#5 51962466#6"/>
    </vehicle>
    <vehicle id="16" type="type1" depart="16.00">
        <route edges="51961488#1 51961488#2 -149641267#0 409619709#0 409619709#1 409619709#2 51962096#0 d6a 51962096#2 h4a 409619707#1 -51961459#3 -51961459#2 51961448#2 -784334027#1 -784334027#0 784334026#0 51962425#5 i3a"/>
    </vehicle>
    <vehicle id="17" type="type1" depart="17.00">
        <route edges="164214178#1 -164214178#1 -164214178#0 831465674#2 164214169#0 164214169#1 149638074#6 149638074#7 149638074#8 142988867#1 107373857#17 107373857#18 107373857#19 107373857#20 107373857#21 107373857#22 107373857#23 107373857#24 107373857#25 107373857#26 107373857#27 107373857#28 364714300#0 364714300#1 364714300#2 364714300#3 364716378#0 364716378#1 364716378#2 364716378#3 364716378#4 364716378#5 51961760#0 51961760#1"/>
    </vehicle>
    <vehicle id="18" type="type1" depart="18.00">
        <route edges="559243850 559243849 200501955#0 200501955#1 107373857#10 107373857#11 107373857#12 107373857#13 107373857#14 107373857#15 107373857#16 107373857#17 107373857#18 107373857#19 107373857#20 107373857#21 107373857#22 107373857#23 107373857#24 107373857#25 107373857#26 107373857#27 107373857#28 364714300#0 364714300#1 364714300#2 364714300#3 -149641267#2 -149641267#1 -149641267#0 409619709#0 409619709#1 51962166#0 51962166#1"/>
    </vehicle>
    <vehicle id="20" type="type1" depart="20.00">
        <route edges="51962409#0 -51962409#0 -51962448#1 -51962448#0 i5b i4 i3 i2 i1 u2 u3 u4 j1 j2 j3 j4 j5 j6 j7 j8a j9a j10a j11a j12a j13a 164214136#11 164214136#12 164214136#13 149638074#0 149638074#1 149638074#2 149638074#3 149638074#4 149638074#5 149638074#6 149638074#7 149638074#8 149638074#9 149638074#10 149638074#11 149638074#12 -200502307#2"/>
    </vehicle>
    <vehicle id="21" type="type1" depart="21.00">
        <route edges="-51962479#3 -51962479#2 f4a f4 f5 f6 f7 f8 f9 f10 f11 f12 f13 f14 f15 f16 f17 f18 f19 f20 f21 f22 f23 k1 k2 k3 k4 k5 k6 106704913#0 c4a 106704913#2 106704913#3 106704913#4 106704913#5 106704913#6"/>
    </vehicle>
    <vehicle id="22" type="type1" depart="22.00">
        <route edges="-385749386#8 51961455#3 51961455#4 51961455#5 x4b x4a x2e x2d x2c x2b x2a 51961455#13 c12c c12 c13 c14 c15 c16 c17 c18 c19 c20 c20a -51962471#4 -51962485#1"/>
    </vehicle>
    <vehicle id="23" type="type1" depart="23.00">
        <route edges="-51961464#1 -203827231#0 107481781#2 107481781#3 g7a 107481781#5 a16a 110998083#1 110998083#2 110998083#3 51962434#0 e5a 364715677#0 i5a 364715677#2 364715677#3 364715677#4 364715677#5 364715677#6 364715677#7 408938353#0 51962278#2 51962278#3 51962278#4 51962278#5 51962278#6 749643446#2 -203820104#1 -203820104#0 197120084#9 749643598 749930225#4 749930225#5 749930225#6 749930225#7 749930225#0 749930229#0 749930229#1 749930229#2 228104269#0 427363323#0 427363323#1 427363323#2 427363323#3 831399282#1 -890761651"/>
    </vehicle>
    <vehicle id="24" type="type1" depart="24.00">
        <route edges="51962212#0 51962212#1 c3b c3a 109190297#4 51962119#3 51962119#4 142988873#0 142988873#1 142988873#2 b22 b21 b20 b19 b18 b17 b16 b15 b14 b13 b12 b11 287413563#6 j7 j8a j9a j10a j11a j12a j13a 164214136#11 164214136#12 364714300#0 364714300#1 364714300#2 364714300#3 200176581#0 200176581#1 200176581#2 200176581#3 200176581#4 -51961489#4 -51961489#3 -51961489#2 -51961489#1 -51961489#0 51961762#7 51961762#8 51961762#9 -164214172#2 -164214172#1 -164214172#0 -164214165 -164214138#8 -164214138#7 -164214138#6 -164214138#5 -164214138#4 164214138#4"/>
    </vehicle>
    <vehicle id="25" type="type1" depart="25.00">
        <route edges="164214160#3 -51961762#13 -51961762#12 -51961762#11 -51961762#10 -51961762#9 -51961762#8 -51961762#7 -51961762#6 -51961762#5 -51961762#4 -51961762#3 -51961762#2 -51961762#1 -51961762#0 142988864#1 142988864#2 d8a d8 -51961767 h5a -203820096#28 -203820096#27 -203820096#26 -203820096#25 -203820096#24 -203820096#23 -203820096#22 51962417#0 51962417#1 51962417#2 51962417#3 -51962435#0"/>
    </vehicle>
    <vehicle id="26" type="type1" depart="26.00">
        <route edges="-784334027#1 -784334027#0 51961450#0 51961450#1 i2a i1 u2 u3 u4 u5 u6 u7 e1 e2 e3 e4b e4a"/>
    </vehicle>
    <vehicle id="27" type="type1" depart="27.00">
        <route edges="51962278#2 -51962278#2 -408938353#0 -364715677#7 -364715677#6 -364715677#5 -364715677#4 -364715677#3 -364715677#2 i5b i4 i3 i2 i1 u2 u3 u4 j1 j2 j3 j4 j5 j6 j7 j8a j9a j10a j11a 51962177#0 51962177#1 51962177#2 51962177#3 51962177#4 365033182#7 365033182#8 365033182#9 51962134#2"/>
    </vehicle>
    <vehicle id="28" type="type1" depart="28.00">
        <route edges="-51962292#8 -51962292#7 408938352#2 408938352#3 -51962265#10 -51962265#9 -51962265#8 -364715677#7 -364715677#6 -364715677#5 -203820096#17 -203820096#16 -203820096#15 -203820096#14 f6a -203820096#12 -203820096#11 c20a -203820096#9 -203820096#8 -203820096#7 51962454#0 51962466#3 51962466#4"/>
    </vehicle>
    <vehicle id="29" type="type1" depart="29.00">
        <route edges="-51962265#10 784334542 51962418#0 51962425#0 51962425#1 51962425#2 51962425#3 51962425#4 51962425#5 784334457#2 51961450#1 i2a i1 u2 u3 u4 j1 j2 j3 j4 j5 j6 j7 j8a j9a j10a j11a j12a j13a 164214136#11 164214136#12 164214136#13 149638074#0 149638074#1 149638074#2 149638074#3 149638074#4 149638074#5 -164214169#1 -164214169#0 -831465674#2 164214178#0 164214178#1"/>
    </vehicle>
    <vehicle id="30" type="type1" depart="30.00">
        <route edges="k7 51962119#3 109190298#0 c2 c3 c4a 106704913#2 106704913#3 106704913#4 106704913#5 106704913#6 106704913#7 106704913#8 106704913#9 51962226#1 364713270#0 364713270#1 364713270#2 364713270#3 -51962361#12 51962227#0"/>
    </vehicle>
    <vehicle id="31" type="type1" depart="31.00">
        <route edges="51961764 228111190#8 228111190#9 228111190#10 228111190#11 364716382#0 364716382#1 364716382#2 149638074#0 379488439#5 379488439#6 379488439#7 379488439#8 b17b b16b b15b b14b b13b b12b b11a b10 b9 b8 b7 b6 b5 559240872#0 559240872#1 559240872#2 g3a g2a g2 g3 g4 g5 g6 g7 g8 g9 g10 g11 g12 g13 g14 g15 g16 g17 g18 g19 g20 g21 g22 y6 y5 y4 v1 v0 v0b 52013531#3 51962380#2 51962380#3"/>
    </vehicle>
    <vehicle id="32" type="type1" depart="32.00">
        <route edges="749930225#0 749930225#1 749930225#2 749930226 749643446#0 749643446#1 749643446#2 749643446#3 f1 f2 f3 f4 f5 f6 f7 f8 f9 e8 e9 e10 e11 e12 e13 e14 e15 e16 e17 e18 e18a -51962383#3 51962561#0 51962561#1 51962561#2 51962561#3 51962561#4 51962561#5 51962561#6 51962561#7 51962361#4 51962540#2"/>
    </vehicle>
    <vehicle id="33" type="type1" depart="33.00">
        <route edges="-51962484#10 -51962484#9 -51962484#8 -51962484#7 -51962484#6 -51962484#5 -51962484#4 -51962484#3 -51962484#2 188351808#0 188351808#1 -188351808#1"/>
    </vehicle>
    <vehicle id="34" type="type1" depart="34.00">
        <route edges="107373857#12 107373857#13 107373857#14 107373857#15 107373857#16 107373857#17 107373857#18 107373857#19 107373857#20 107373857#21 107373857#22 107373857#23 107373857#24 107373857#25 107373857#26 107373857#27 107373857#28 364714300#0 364714300#1 364714300#2 364714300#3 364716378#0 364716378#1 364716378#2 -142988877#2 -142988877#1 -142988877#0 d7a -51961767 h5a 51961793#0 51961793#1 51961793#2 51961793#3 51961793#4 51961793#5 51961793#6 51961473#3 51961473#4 51961473#5 51961473#6 749643445#2 749930225#2 749930225#3 749930225#4 749930225#5 749930225#6 749930225#7 749930225#0 749930229#0 51962286#0 51962286#1 765979054#0 765979054#1 765979054#2 765979054#3 765979054#4 -765979054#4"/>
    </vehicle>
    <vehicle id="35" type="type1" depart="35.00">
        <route edges="-51962439#1 f14a f14 f14b f15a"/>
    </vehicle>
    <vehicle id="36" type="type1" depart="36.00">
        <route edges="907335051#1 107373856#0 107373856#1 107373856#2 107373856#3 107373856#4"/>
    </vehicle>
    <vehicle id="37" type="type1" depart="37.00">
        <route edges="51962344#1 107644622#4 409566590 107627053#2 527479866 527479868#0 527479868#1 527479868#2 409566598 i18 i17 i16 i15 i14 51962384 203820096#0 203820096#1 203820096#2 203820096#3 203820096#4 203820096#5 203820096#6 203820096#7 203820096#8 203820096#9 203820096#10 203820096#11 203820096#12 203820096#13 203820096#14 203820096#15 203820096#16 203820096#17 203820096#18 203820096#19 203820096#20 203820096#21 203820096#22 203820096#23 203820096#24 203820096#25 203820096#26 203820096#27 203820096#28 203820096#29 h6 h7 h8 h9 h10 310090075#7 310090075#8 310090075#9 310090075#10 -409619708 228111190#0 228111190#1 228111190#2 -164214138#15 -164214138#14 -164214138#13 -164214138#12 -164214138#11 -164214138#10 -164214138#9 -164214176#4 -164214176#3 -164214158#2 -164214158#1 -746746167#2 746747182 200374730#1"/>
    </vehicle>
    <vehicle id="38" type="type1" depart="38.00">
        <route edges="c21 c22 c22a 51962496#1 51962496#2 51962471#2 51962471#3 51962471#4 -203820096#9 -203820096#8 -203820096#7 -203820096#6 -203820096#5 i12b i11 364715676"/>
    </vehicle>
    <vehicle id="40" type="type1" depart="40.00">
        <route edges="51961779#0 -51961773#1 -51961773#0 51961769#3 51961769#4 51961769#5 409619705#0 409619705#1 51961473#0 51961792#0 51961792#1 51961792#2 51961792#3 51961792#4 51961470#0 -51961793#0 -203820096#28 -203820096#27 -203820096#26 -203820096#25 -203820096#24 -203820096#23 -203820096#22 -203820096#21 -203820096#20 -203820096#19 -203820096#18 -203820096#17 -203820096#16 -203820096#15 -203820096#14 f6a -203820096#12 -203820096#11 c20a -203820096#9 -203820096#8 -203820096#7 -203820096#6 -203820096#5 -203820096#4 -203820096#3 51962488#0 51962488#1 579739888#3 -750471837#5 -750471837#4 -750471837#3 -750471837#2 -750471837#1 -750471837#0"/>
    </vehicle>
    <vehicle id="41" type="type1" depart="41.00">
        <route edges="51962058#5 51962058#6 51962058#7 385748873 385748872#0 385748872#1 385748872#2 51962180#5 51962180#6 51962180#7 106704914#9 106704914#10 106704914#11 106704914#12 107379321#1 107379321#2 107379321#3 c0 772000483 142988873#0 142988873#1 142988873#2 b22 b21 b20 b19"/>
    </vehicle>
    <vehicle id="42" type="type1" depart="42.00">
        <route edges="200501965#4 200501965#5 51961931#2 -49732158#2 142988867#0 142988867#1 107373857#17 107373857#18 107373857#19 107373857#20 107373857#21 -200176602#3 -200176602#2 b20b -200176602#0 b19 107481781#1 107481781#2 107481781#3 g7a 107481781#5 a16a 110998083#1 110998083#2 110998083#3 51962434#0 e5a e5 e6 e7 e8 e9 e10 e11 -893597736 i12a -203820096#4 51962460#0 -51962460#0"/>
    </vehicle>
    <vehicle id="43" type="type1" depart="43.00">
        <route edges="x4b x4a x4 y1 a1 a2 a3 53960644#2 g19a c6a -203827231#10 -203827231#9 k3a k3b 454986626#0 454986626#1"/>
    </vehicle>
    <vehicle id="44" type="type1" depart="44.00">
        <route edges="-49732158#17 -49732158#16 -49732158#15 203827003#0 203827003#1 203827003#2 203827003#3 203827003#4 203827003#5 107379321#7 107379321#8 107379321#0 107379321#1 c3d 51962205#0 51962205#1 51962205#2 51962205#3 c5a c5 c6 c7 c8 c9 c10 c11 c12 c13 c14 c15 c16 c17 c18 c19 c20 203820096#11 203820096#12 -203820096#12"/>
    </vehicle>
    <vehicle id="45" type="type1" depart="45.00">
        <route edges="-51961473#5 -51961473#4 -51961473#3 -51961793#6 -51961793#5 -51961793#4 -51961793#3 -51961793#2 -51961793#1 -51961793#0 203820096#29 h5b d7 d6 d5 d4 d3 d2 d1 u4 u5 u6 g1 g2 g3 g4 g5 g6a 107481780#2 107481780#3 107481780#4 b19b 772000484#0 772000484#1 772000484#2 107644624#0 107644624#1 107644624#2 107644624#3 107644624#4 107379321#5 106705258#0 106705258#1 51962147#7 51962147#8 51962147#9 51962147#10 51962180#6"/>
    </vehicle>
    <vehicle id="46" type="type1" depart="46.00">
        <route edges="51962562#8 51962562#9 e20 e21 e22 409566603 107627053#0 107627053#1 107627053#2 409566600 107627047#0 107627047#1 107627047#2 107627047#3 107627047#4 108275075 -292908792#3 204059946#0 204059946#1"/>
    </vehicle>
    <vehicle id="47" type="type1" depart="47.00">
        <route edges="-282807213 52013789#0 52013789#1 282807212#0 282807212#1 282807212#2 282807212#3 282807212#4 282807212#5 282807212#6 v3 v3466345 39495337#1 39495337#2 51962203#8 51962203#9 k5 k6 k7 51962119#3 51962119#4 51962119#5 51962119#6 51962119#7 51962119#8 51962119#9 51962119#10 51962119#11 51962119#12 888512947#0 -164214181#3 -164214181#2 -164214181#1 -164214181#0 164214181#0"/>
    </vehicle>
    <vehicle id="48" type="type1" depart="48.00">
        <route edges="x2e x2d x2c x2b x2a 51961455#13 c12c c12 c13 c14 c14a 365224885#1 f14b 365224885#3 365224885#4 365224885#5 365224885#6 51961464#7"/>
    </vehicle>
    <vehicle id="49" type="type1" depart="49.00">
        <route edges="i16a i16 i15 i14 51962384 203820096#0 203820096#1 203820096#2 203820096#3 203820096#4 203820096#5 203820096#6 203820096#7 203820096#8 203820096#9 203820096#10 c21 c22 c23 c24 c25 c26 197120084#8 197120084#9 749643598 749930225#4 749930225#5 749930225#6 749930225#7 749930225#0 749930229#0 749930229#1 749930229#2 228104269#0 427363323#0 427363323#1 427363323#2 831399283#1 831399283#2"/>
    </vehicle>
    <vehicle id="50" type="type1" depart="50.00">
        <route edges="-164214138#7 164214138#7 164214138#8 164214138#9 164214138#10 164214138#11 164214138#12 164214138#13 164214138#14 164214138#15 228111190#3 228111190#4 228111190#5 -51961762#4 -51961762#3 -51961762#2 -51961762#1 -51961762#0 142988864#1 142988864#2 d8a d8 -51961767 h5a -203820096#28 -203820096#27 -203820096#26 -203820096#25 -203820096#24 -203820096#23 -203820096#22 -203820096#21 -203820096#20 -203820096#19 -203820096#18 -364715677#4 -51962407#4 -51962407#3 -51962407#2 -51962407#1 -51962452 51962452"/>
    </vehicle>
    <vehicle id="51" type="type1" depart="51.00">
        <route edges="51962376#1 51962392#3 51962392#4 51962392#5 51962392#6 -364715677#6 -364715677#5 -364715677#4 -364715677#3 -364715677#2 i5b i4 i3 i2 i1 u2 u3 u4 u5 u6 g1 g2 g3 g2b g2c b4b b15a 51961475#7"/>
    </vehicle>
    <vehicle id="52" type="type1" depart="52.00">
        <route edges="-784334027#1 51961452#1 51961452#2 51961452#3 h2 245084749 d3a 51961484#1 149641267#0 149641267#1 149641267#2 200176581#0 200176581#1 200176581#2 364716382#0 364716382#1 364716382#2 149638074#0 149638074#1 149638074#2 149638074#3 149638074#4 149638074#5 149638074#6 149638074#7 149638074#8 149638074#9 149638074#10 149638074#11 149638074#12 149638074#13 149638074#14 149638074#15 149638074#16 107373856#0 107373856#1 107373856#2 107373856#3 107373856#4 107373856#5 107373856#6 107373856#7 107373856#8 771998437 51962063#0 51962063#1 51962063#2 51962063#3 51962063#4 107259960#0 107259960#1 231511940 -51962230#5 -51962230#4 -51962230#3 -51962230#2 -51962230#1 51962230#1"/>
    </vehicle>
    <vehicle id="53" type="type1" depart="53.00">
        <route edges="-51961489#0 51961489#0 51961489#1 51961489#2 51961489#3 51961489#4 -200176581#4 -200176581#3 364716382#0 364716382#1 364716382#2 149638074#0 379488439#5 379488439#6 379488439#7 379488439#8 b17b b16b b15b b14b b13b b12b j9 j10 j11 j12 j13 j14 j15 j16 j17 j18 j19 j20 j21 j22 j23 245184773#1"/>
    </vehicle>
    <vehicle id="54" type="type1" depart="54.00">
        <route edges="364208185#1 364208185#2 -51962078#0 352157047#0 352157047#1 352157047#2 385749390#3 385749390#4 385749390#5 51962058#8 51962058#9 51962058#10 106704914#6 51962098#7 51962098#8 51962098#9 c5g c5f 51962391#0 51962391#1 53960640#3 53960640#4 g20d g20c g20b g20a g20a0 a3 53960644#2 g19a"/>
    </vehicle>
    <vehicle id="55" type="type1" depart="55.00">
        <route edges="894853390 -51961883#1 -51961883#0 385749391#4 385749391#5 281702470 51962227#0 51962227#1 53960640#0 53960640#1 53960640#2 53960640#3 53960640#4 g20d g20c g20b g20a g20a0 x24235343522fs 107261008#2 107261009#0 107261009#1 107261009#2 107261009#3 107261009#4 107261009#5 107261009#6 e15 527480048 51962346#0 51962557#0 51962557#1 -51962631#10 -51962631#9 -51962631#8 -750471837#2"/>
    </vehicle>
    <vehicle id="56" type="type1" depart="56.00">
        <route edges="409566596 107644626#0 107644626#1 -51962344#2 107644622#4 409566590 107627053#2 527479866 527479868#0 409566592 53960645#0 -51962350#0"/>
    </vehicle>
    <vehicle id="57" type="type1" depart="57.00">
        <route edges="c17 c18 i9 i8 i7 i6 i6a -51962448#2 51962409#0 51962407#3 890761732"/>
    </vehicle>
    <vehicle id="58" type="type1" depart="58.00">
        <route edges="107259941#2 385749390#0 385749390#1 385749390#2 385749390#3 385749390#4 385749390#5 51962058#8 51962058#9 51962058#10 51962226#0"/>
    </vehicle>
    <vehicle id="59" type="type1" depart="59.00">
        <route edges="51962134#4 -51962134#4 -51962134#3 -51962134#2 -365033182#9 -365033182#8 -365033182#7 51962177#5 51962177#6 51962177#7 -51962148#9 -51962148#8"/>
    </vehicle>
    <vehicle id="60" type="type1" depart="60.00">
        <route edges="51962522#1 51962522#2 51962522#3 39495337#2 51962203#8 51962203#9 k5 k6 k7 51962119#3 51962119#4 142988873#0 142988873#1 142988873#2 b22 b21 b20 b19 b18 b17 b16 b15 b14 b13 b12 b11 287413563#6 j7 j8a j9a j10a j11a j12a j13a 164214136#11 164214136#12 364714300#0 364714300#1 364714300#2 364714300#3 200176581#0 200176581#1 200176581#2 200176581#3 200176581#4 -51961489#4 -51961489#3 -51961489#2 51961489#2"/>
    </vehicle>
    <vehicle id="61" type="type1" depart="61.00">
        <route edges="51962541#2 51962541#3 51962541#4 51962541#5 -51962548 51962553#4 51962504#0 51962504#1 51962504#2 51962540#9 203820100 51962532#0 51962532#1 51962532#2 51962500#6 51962500#7 51962524#0 51962524#1 51962524#2 31245344#4 53960644#0 x1 53960644#2 g19a c6a -203827231#10 -203827231#9 k3a k3b -203827231#6 -203827231#5 51961467#2"/>
    </vehicle>
    <vehicle id="62" type="type1" depart="62.00">
        <route edges="-108275075 107627052#0 107627052#1 409566601 527479868#0 527479868#1 527479868#2 409566598 i18 i17 i16 i15 i14 i13 527480049 e13 e13a 31245344#1 31245344#2 31245344#3 31245344#4 53960644#0 x1 53960644#2 g19a c6a -203827231#10 -203827231#9 k4 k5 k6 106704913#0 c4a 51962212#0 51962212#1 759891911 109190298#3 107379321#3 107379321#4 107379321#5 107379321#6 107379321#7 107379321#8 107379321#0 107379321#1"/>
    </vehicle>
    <vehicle id="63" type="type1" depart="63.00">
        <route edges="-164214166#2 164214182#2 -831465675#1 164214178#3 -164214179#1 164214181#0 164214181#1 164214181#2 164214181#3 888512947#1 -200501965#7 107262525#2 142988867#0 142988867#1 107373857#17 107373857#18 107373857#19 107373857#20 107373857#21 107373857#22 107373857#23 107373857#24 107373857#25 107373857#26 107373857#27 107373857#28 364714300#0 364714300#1 364714300#2 364714300#3 364716378#0 364716378#1 364716378#2 -142988877#2 -142988877#1 -142988877#0 -142988864#3 d8a"/>
    </vehicle>
    <vehicle id="64" type="type1" depart="64.00">
        <route edges="907335052#7 51962098#3 385748872#1 385748872#2 51962180#5 51962180#6 51962180#7 51962103#0 51962103#1 51962103#2 51962103#3 51962391#0 51962391#1 53960640#3 53960640#4 g20d g20c g20b g20a g20a0 x24235343522fs 107261008#2 107261009#0 107261009#1 107261009#2 107261009#3 107261009#4 107261009#5 107261009#6 e15 527480048 51962346#0 51962346#1 579739888#0"/>
    </vehicle>
    <vehicle id="65" type="type1" depart="65.00">
        <route edges="107261009#2 51962403#1 51962403#2 51962403#3 51962403#4 51962403#5 c14c c14a 365224885#1 f14b 365224885#3 365224885#4 365224885#5 51961461#2 51961461#3 51961461#4 a14 -51961464#3 -51961464#2 -51961464#1 -203827231#0"/>
    </vehicle>
    <vehicle id="66" type="type1" depart="66.00">
        <route edges="907335052#4 907335052#5 51962180#4 51962180#5 51962180#6 51962180#7 106704914#9 106704914#10 106704914#11 106704914#12 107379321#1 107379321#2 107379321#3 c0 772000483 142988873#0 142988873#1 142988873#2 b22 b21 b20 b19 107481781#1 107481781#2 107481781#3 g7a 107481781#5 a16a 110998083#1 110998083#2 110998083#3 51962434#0 e5a 364715677#0 i5a 364715677#2 364715677#3 364715677#4 364715677#5 51962417#3 51962417#4 51962417#5 51962417#6 51962417#7 51962417#8 f4a f4"/>
    </vehicle>
    <vehicle id="67" type="type1" depart="67.00">
        <route edges="-409619708 228111190#0 228111190#1 228111190#2 228111190#3 228111190#4 228111190#5 228111190#6 228111190#7 228111190#8 228111190#9 228111190#10 228111190#11 364716382#0 364716382#1 364716382#2 149638074#0 149638074#1 149638074#2 149638074#3 149638074#4 149638074#5 149638074#6 149638074#7 149638074#8 142988867#1 c0g c0f c0e 51962147#1 51962147#2 51962147#3 51962147#4 51962147#5 51962147#6 51962147#7 51962147#8 51962147#9 51962147#10 51962147#11 51962147#12 51962147#13 385748870 385748877#0 369948713#1 -51962190#3 -51962190#2 -51962190#1 51961873 385749390#2"/>
    </vehicle>
    <vehicle id="68" type="type1" depart="68.00">
        <route edges="-364715677#6 -364715677#5 -203820096#17 -203820096#16 -203820096#15 -203820096#14 f6a f6 f7 f8 f9 f10 f11 f12 f13 f14 f15 51962533#0 51962533#1 c12a 51962533#3 51962514#2 51962516#1 51961455#13 51962510#0"/>
    </vehicle>
    <vehicle id="69" type="type1" depart="69.00">
        <route edges="51962524#1 51962524#2 51962524#3 51962516#0 51962516#1 x2 a5 a6 a7 a8 a9 a10 a11 a12 a13 a14 a15 a16 a17 a18 a19 a20 a21 u1 u2 h1 h2 245084749 d3a 51961484#1 149641267#0 149641267#1 149641267#2 200176581#0 200176581#1 200176581#2 200176581#3 200176581#4 -51961489#4 -51961489#3 -51961489#2 -51961489#1 -51961489#0 51961762#7 51961762#8 51961762#9 51961762#10 51961762#11 -51961762#11"/>
    </vehicle>
    <vehicle id="70" type="type1" depart="70.00">
        <route edges="385748872#1 385748872#2 385748872#3 385748872#4 385748872#5 229477270#0 229477270#1 229477270#2 229477270#3 229477270#4 229477270#5 229477270#6 229477270#7 229477270#8 229477270#9 229477270#10 229477270#11 51962119#9 51962119#10 107373857#18 107373857#19 107373857#20 107373857#21 107373857#22 107373857#23 107373857#24 107373857#25 107373857#26 107373857#27 107373857#28 364714300#0 364714300#1 364714300#2 364714300#3 200176581#0 200176581#1 200176581#2 200176581#3 200176581#4 -51961489#4 -51961489#3 -51961489#2 -51961489#1 -51961489#0 51961762#7 -51961763#1 51961751#1"/>
    </vehicle>
    <vehicle id="72" type="type1" depart="72.00">
        <route edges="215325073#0 -215325083 -51962365#8 -51962365#7 -51962365#6 51962471#0 51962471#1 51962471#2 51962471#3 51962471#4 203820096#10 203820096#11 203820096#12 f6 f7 f8 f9 f10 f11 f11a 51962449#0 51962419 -51962439#1"/>
    </vehicle>
    <vehicle id="73" type="type1" depart="73.00">
        <route edges="51961725#3 51961725#4 51961725#5 51961725#6 409619705#0 409619705#1 51961473#0 51961792#0 51961792#1 51961792#2 51961792#3 51961792#4 51961470#0 -51961793#0 -203820096#28 -203820096#27 -203820096#26 -203820096#25 -203820096#24 -203820096#23 -203820096#22 -203820096#21 -203820096#20 -203820096#19 -203820096#18 -203820096#17 -203820096#16 -203820096#15 -203820096#14 f6a -203820096#12 -203820096#11 c20a -203820096#9 -203820096#8 -203820096#7 51962454#0 51962466#3 51962466#4 51962466#5 51962466#6 51962466#7"/>
    </vehicle>
    <vehicle id="74" type="type1" depart="74.00">
        <route edges="-51962394#0 51962394#0 107258442#2 -51962400#2 -51962400#1 51962561#1 51962561#2 51962561#3 51962561#4 51962380#10 51962380#11 365224884#0 365224884#1 51962369#0 51962369#1 51962369#2 51962369#3 51962369#4 543905043 107627047#4 108275075 -292908792#3 204059946#0 107326328#1"/>
    </vehicle>
    <vehicle id="75" type="type1" depart="75.00">
        <route edges="x2b x2a 51961455#13 c12c c12 c13 c14 c15 c16 c17 c18 c19 c20 c21 c22 c23 c24 c25 -51962365#1 -51962365#0 51962265#0 51962265#1 -51962375#0 51962278#6"/>
    </vehicle>
    <vehicle id="76" type="type1" depart="76.00">
        <route edges="281875503#3 281875503#4 385748872#5 229477270#0 203827003#4 203827003#5 107379321#7 107379321#8 107379321#0 107379321#1 107379321#2 107379321#3 c0 772000483 142988873#0 142988873#1 142988873#2 b22 b21 b20 b19 107481781#1 107481781#2 107481781#3 g7a 107481781#5 a16a 110998083#1 110998083#2 110998083#3 51962434#0 e5a 364715677#0 i4 i3 i2 i2b -51961450#1 51961450#1"/>
    </vehicle>
    <vehicle id="77" type="type1" depart="77.00">
        <route edges="-51961747#3 d12a d12 d11 d10 d9 d8 -51961767 h5a -203820096#28 -203820096#27 -203820096#26 -203820096#25 -203820096#24 -203820096#23 -203820096#22 -203820096#21 -203820096#20 -203820096#19 -203820096#18 -203820096#17 -203820096#16 -203820096#15 -203820096#14 f6a -203820096#12 -203820096#11 c20a -203820096#9 -203820096#8 -203820096#7 51962454#0 51962454#1 -51962469#4 -51962469#3"/>
    </vehicle>
    <vehicle id="78" type="type1" depart="78.00">
        <route edges="108231935#7 149638074#15 149638074#16 107373856#0 107373856#1 107373856#2 107373856#3 107373856#4 107373856#5 107373856#6 107373856#7 107373856#8 771998437 51962063#0 51962063#1 51962063#2 51962063#3 51962063#4"/>
    </vehicle>
    <vehicle id="79" type="type1" depart="79.00">
        <route edges="-51962484#4 51962484#4 51962484#5 51962483 51962365#5 51962471#0 51962471#1 51962496#3 -51962464#2 -51962464#1"/>
    </vehicle>
    <vehicle id="80" type="type1" depart="80.00">
        <route edges="-365033182#3 365033182#3 j15 j16 j17 j18 b19b 772000484#0 772000484#1 772000484#2 107644624#0 c0a c1 c2 c3 c4a 106704913#2 106704913#3 106704913#4 106704913#5 106704913#6 106704913#7 51962102#1 51962200#1"/>
    </vehicle>
    <vehicle id="81" type="type1" depart="81.00">
        <route edges="-51962484#1 51962484#1 51962484#2 51962484#3 c26a 51962366#3 51962366#4 f1 51962265#0 51962265#1 51962265#2 51962265#3 51962265#4 51962265#5 51962265#6 51962265#7 -364715677#7 -364715677#6 -364715677#5 -364715677#4 -364715677#3 -364715677#2 i5b i4 i3 i2 i1 u2 u3 u4 j1 j2 j3 j4 j5 j6 j7 j8 j9 j10 j11 j12 j13 j14 -365033182#3 b8a"/>
    </vehicle>
    <vehicle id="83" type="type1" depart="83.00">
        <route edges="-51962544#1 51962544#1 51962553#3 51962553#4 51962553#5 51962553#6 51962553#7 51962553#8 51962553#9 365224884#0 365224884#1 51961869#0 51961869#1 51961869#2 51961869#3 51962537#0 51962537#1 51962537#2 -385749386#11 -385749386#10 -385749386#9 51962362#3"/>
    </vehicle>
    <vehicle id="84" type="type1" depart="84.00">
        <route edges="-51962449#0 51962416#1 51962416#2 51962416#3 51962416#4 51962416#5 51962416#6 51962434#0 e5a 364715677#0 i4 i3 i2 i1 u2 h1 h2 h3 h4 h5 h5b h5c -142988864#3 -142988864#2 -142988864#1 51961762#0 51961762#1 51961762#2 51961762#3 364716378#7 -51961765"/>
    </vehicle>
    <vehicle id="85" type="type1" depart="85.00">
        <route edges="e3 e4 e5 e6 e7 e8 e9 e10 e11 e12 e13 e14 e15 e16 e17 e18 e18a -51962383#3 51962561#0 51962561#1 51962561#2 51962561#3 51962561#4 51962561#5 51961869#2 51961869#3 51961869#4 51961869#5 51961869#6"/>
    </vehicle>
    <vehicle id="86" type="type1" depart="86.00">
        <route edges="379488439#2 379488439#3 379488439#4 379488439#5 379488439#6 379488439#7 379488439#8 b17b b16b b15b b14b b13b b12b b11a b10 b9 b8 b7 b6 b5 b4 b3 b2 b1 u6 u7 e1 e2 e3 e4 e5 e6 e7 e8 e9 e10 e11 e12 e13 e14 e15 527480048 51962346#0 51962557#0 -332419085#1 i16a 51962553#0"/>
    </vehicle>
    <vehicle id="87" type="type1" depart="87.00">
        <route edges="51962648#2 51962648#3 107258445#1 107258445#2 107258445#3 51962368#0 -51962368#0"/>
    </vehicle>
    <vehicle id="88" type="type1" depart="88.00">
        <route edges="-51961457#2 -51961457#1 -51961793#2 -51961793#1 -51961793#0 203820096#29 h5b h5c 142988877#0 142988877#1 142988877#2 142988876#0 228111190#10 228111190#11 364716382#0 364716382#1 364716382#2 149638074#0 149638074#1 149638074#2 149638074#3 149638074#4 149638074#5 149638074#6 149638074#7 149638074#8 142988867#1 c0g 197120074#1 197120074#2 197120074#3 197120074#4 200501955#3 229477270#6"/>
    </vehicle>
    <vehicle id="89" type="type1" depart="89.00">
        <route edges="215325073#1 -51962365#11 -51962365#10 -51962365#9 -51962365#8 -51962365#7 -51962365#6 51962471#0 51962471#1 51962471#2 51962471#3 51962471#4 203820096#10 203820096#11 203820096#12 f6 f7 f8a i6 51962421#1 e6b 51962416#3 51962416#4 51962416#5 51962416#6 51962434#0 51962176#0 51962176#1 51962176#2 51962176#3 a17 a18 51961475#2 g2b g2c 51962174#1 b3b b14a b14 365033182#3 j14a 365033182#5"/>
    </vehicle>
    <vehicle id="90" type="type1" depart="90.00">
        <route edges="51962466#7 -51962466#7 -51962466#6 51962455#0 51962455#1 51962455#2 51962455#3 51962455#4 51962648#6 51962648#7 -51962469#0 -51962365#7 51962365#7"/>
    </vehicle>
    <vehicle id="91" type="type1" depart="91.00">
        <route edges="j22a -51961461#7 -203827229#1 -203827229#0 107481781#3 g7a 107481781#5 a16 a17 a18 a19 a20 a21 u1 u2 h1 h2 h3 h4 h5 h5a 51961793#0 51961793#1 -51961458#0"/>
    </vehicle>
    <vehicle id="92" type="type1" depart="92.00">
        <route edges="200502307#0 200502307#1 -49732158#6 231256712#2 231256712#3 107373857#14 107373857#15 51962127#0 197120074#2 197120074#3 108231935#5"/>
    </vehicle>
    <vehicle id="94" type="type1" depart="94.00">
        <route edges="-51962368#3 -51962368#2 -51962368#1 -51962368#0 107258445#4 110467768#1 110467768#2 110467768#3 110467768#4 110467768#5 110467768#6 203820096#8 203820096#9 203820096#10 203820096#11 203820096#12 203820096#13 203820096#14 203820096#15 203820096#16 203820096#17 203820096#18 203820096#19 203820096#20 203820096#21 203820096#22 203820096#23 203820096#24 203820096#25 203820096#26 203820096#27 203820096#28 203820096#29 h6 h7 h8 h9 h10 310090075#7 310090075#8"/>
    </vehicle>
    <vehicle id="95" type="type1" depart="95.00">
        <route edges="203827231#9 203827231#10 c6 c7 c8 c9 c10 c11 c12 c13 c14 c15 c16 c17 c18 c19 c20 c21 c22 c22a -51962474#3 -51962474#2 -51962474#1 -51962474#0 -51962619#4 -215325074#0 -890761695"/>
    </vehicle>
    <vehicle id="96" type="type1" depart="96.00">
        <route edges="-51962631#3 51962631#3 -51962368#2 -51962368#1 -51962368#0 107258445#4 107258445#5 107258445#6 107258445#7 -579739888#4 -579739888#3 -579739888#2 -579739888#1 -579739888#0 i14a i13 527480049 e13 e13a 31245344#1 31245344#2 31245344#3 31245344#4 53960644#0 x1 53960644#2 g19a c6a c6 c7a"/>
    </vehicle>
    <vehicle id="97" type="type1" depart="97.00">
        <route edges="282807212#6 v3 v3466345 53960640#4 g20d g20c g20b g20a g20a0 a3 a4 a5 a6 c10 c11 c12 c13 c14 c15 c16 c17 c18 c19 c20 c21 c22 c23 c24 c25 c26 197120084#8 197120084#9 749643598 749930225#4 749930225#5 749930225#6 749930225#7 749930225#0 749930229#0 51962286#0 51962286#1 765979054#0 765979054#1 765979054#2 765979054#3 765979054#4 397720064 -831399284#2 -831399284#1 831399284#1"/>
    </vehicle>
    <vehicle id="98" type="type1" depart="98.00">
        <route edges="51961755#3 39495324#3 39495324#4 d13 d12 d11 d10 d9 d8 -51961767 h5a -203820096#28 -203820096#27 -203820096#26 -203820096#25 -203820096#24"/>
    </vehicle>
    <vehicle id="99" type="type1" depart="99.00">
        <route edges="y6 y5 y4 y3 y2 y1 a1 x3c x2c 107261008#2 107261009#0 107261009#1 107261009#2 107261009#3 107261009#4 107261009#5 107261009#6 e15 527480048 51962346#0 51962346#1 579739888#0 579739888#1 579739888#2 579739888#3 579739888#4 579739890#0 579739890#1 579739890#2 579739890#3 579739890#4 579739890#5 579739890#6 579739890#7 579739890#8"/>
    </vehicle>
    <vehicle id="100" type="type1" depart="100.00">
        <route edges="i12b i11 i10 i9 i8 i7 i6 i5 i4 i3 i2 i1 u2 h1 h2 245084749 d3 d2"/>
    </vehicle>
    <vehicle id="101" type="type1" depart="101.00">
        <route edges="759891911 109190298#3 107379321#3 c0 772000483 142988873#0 142988873#1 142988873#2 b22 b21 b20 b19 107481781#1 107481781#2 107481781#3 g7a 107481781#5 a16a 110998083#1 110998083#2 110998083#3 51962434#0 e5a 364715677#0 i5a 364715677#2 364715677#3 364715677#4 364715677#5 364715677#6 364715677#7 -51962265#7"/>
    </vehicle>
    <vehicle id="102" type="type1" depart="102.00">
        <route edges="385749390#2 385749390#3 385749390#4 385749390#5 385748873 385748872#0 385748872#1 385748872#2 51962180#5 51962180#6 51962180#7 106704914#9 106704914#10 106704914#11 106704914#12 107379321#1 107379321#2 107379321#3 c0 772000483 142988873#0 142988873#1 142988873#2 b22 b21 b20 b19 107481781#1 107481781#2 107481781#3 g7a 107481781#5 a16a 110998083#1 110998083#2 110998083#3 51962434#0 e5a 364715677#0 i5a 51962448#0 -51962448#0"/>
    </vehicle>
    <vehicle id="103" type="type1" depart="103.00">
        <route edges="200502305#2 200502305#3 107262525#1 107262525#2 142988867#0 142988867#1 107373857#17 107373857#18 107373857#19 107373857#20 107373857#21 -200176602#3 -200176602#2 b20b -200176602#0 b19 j20 j20a 203827231#1 203827231#2 -203827231#2"/>
    </vehicle>
    <vehicle id="104" type="type1" depart="104.00">
        <route edges="164214178#2 164214178#3 -164214179#1 164214181#0 164214181#1 164214181#2 164214181#3 888512947#1 -200501965#7 107262525#2 142988867#0 142988867#1 107373857#17 107373857#18 107373857#19 107373857#20 107373857#21 107373857#22 107373857#23 -365033182#10 -365033182#9 -365033182#8 -365033182#7 -365033182#6 -365033182#5 -365033182#4 -365033182#3 b8a b2a b1a b4 b3 b2 b1 u6 u7 u1 u2 u3 u4 j1 j2 j3 j4 j5"/>
    </vehicle>
    <vehicle id="106" type="type1" depart="106.00">
        <route edges="364713037 c5h c5g c5f 51962391#0 51962391#1 53960640#3 53960640#4 g20d g20c g20b g20a g20a0 a3 a4 a5 a6 c10 c11 c12 c13 c14 c14b -51962382#2 -51962382#1 e12a -893597736 i12a 203820096#5 -51962487#2 -51962487#1 -51962487#0 -51962466#7 -51962345#5 -51962345#4 -51962345#3 -51962345#2 -51962345#1 -51962345#0 51962365#11 -215325073#1 215325073#1"/>
    </vehicle>
    <vehicle id="107" type="type1" depart="107.00">
        <route edges="g3 g4 g5 g6 g7 g8 g9 g10 g11 g12 g13 g14 g15 g16 g17 g18 g19 g20 g21 124127220#1 x3c x2c"/>
    </vehicle>
    <vehicle id="108" type="type1" depart="108.00">
        <route edges="51961762#8 -51961762#8 -51961762#7 51961489#0 51961489#1 51961489#2 51961489#3 51961489#4 -200176581#4 -200176581#3 364716382#0 364716382#1 364716382#2 149638074#0 379488439#5 379488439#6 379488439#7 379488439#8 b17b b16b b15b b14b b13b b12b b11a b10 b9 b8 b7 b6 b5 559240872#0 559240872#1 559240872#2 g3a g2a g2 g3 g4 g5 g6 g7 g8 -51961461#5 a13a -51962442#3 51962442#3"/>
    </vehicle>
    <vehicle id="109" type="type1" depart="109.00">
        <route edges="-51962190#0 51962190#0 51962190#1 51962183#1 51962183#2 385749392 106704914#4 106704914#5 106704914#6 51962098#7 51962098#8 51962098#9 c5g c5f 51962391#0 51962391#1 53960640#3 53960640#4 g20d g20c g20b g20a g20a0 x24235343522fs 107261008#2 107261009#0 107261009#1 51962533#7 51962533#8 -51962531 -51962394#2 -51962394#1 107258442#2"/>
    </vehicle>
    <vehicle id="110" type="type1" depart="110.00">
        <route edges="i12a i12b 893597736 e12b 51962382#1 51962382#2 c14c c14a 365224885#1 f15 f16 f17 f18 f19 f20 f21 f22 f23 k1 k2 k3 k4 k5 k6 k7 51962119#3 51962119#4 51962119#5 51962119#6 51962119#7 51962119#8 51962119#9 51962119#10 51962119#11 51962119#12 888512947#0 888512947#1 -200501965#7 -200501965#6 51961931#2"/>
    </vehicle>
    <vehicle id="111" type="type1" depart="111.00">
        <route edges="51961736#0 -51961736#0 -409619708 d13 d12 d11 d10 d9 d8 -51961767 h5a -203820096#28 -203820096#27 -203820096#26 -203820096#25 -203820096#24 -203820096#23 -203820096#22 51962417#0 51962417#1 51962417#2 51962417#3 51962417#4 51962417#5 51962417#6 51962417#7 51962417#8 f4a 51962417#10 51962417#11 c22a 51962496#1 51962496#2 51962496#3 51962496#4 51962496#5 51962496#6 51962494#4"/>
    </vehicle>
    <vehicle id="112" type="type1" depart="112.00">
        <route edges="-203827231#6 203827231#6 454986626#0 454986626#1 52529620#0 52529620#1 52529620#2 52529620#3 52529620#4 772000481 109190298#0 109190298#1 109190298#2 109190298#3 107379321#3 107379321#4 107379321#5 107379321#6 107379321#7 107260746#0 107260746#1 107260746#2 107260746#3 107260746#4 107260746#5 107260746#6 107259946#0 385748870 385748877#0 369948713#1 -51962190#3 -51962190#2 -51962190#1 51961873 556607105 555853982 51962063#4 107259960#0 107259960#1 231511940 -51962230#5 51962047#0 51962047#1"/>
    </vehicle>
    <vehicle id="113" type="type1" depart="113.00">
        <route edges="409617665#1 409617665#2 409617665#3 409617665#4 409617665#5 106704914#5 912840639 107259946#0 107259946#1 107259946#2 107259946#3 107259946#4 107373856#8 771998437 771998436"/>
    </vehicle>
    <vehicle id="114" type="type1" depart="114.00">
        <route edges="-51962222#0 385749386#2 385749386#3 385749386#4 51962227#1 53960640#0 53960640#1 53960640#2 53960640#3 53960640#4 g20d g20c g20b g20a g20a0 a3 a4 a5 a6 a7 a8 a9 a10 a11 a12 a13 51961461#5 g8b"/>
    </vehicle>
    <vehicle id="115" type="type1" depart="115.00">
        <route edges="-385749387 385933219#1 385933219#2 385933219#3 -51961888#1 -51961888#0 51962178#2 51962178#3 385749388 385749391#0 385749391#1 -51962222#2 -51962222#1 -51962361#13 -51962361#12 -51962361#11 -51962361#10 -51962361#9 -51962361#8"/>
    </vehicle>
    <vehicle id="116" type="type1" depart="116.00">
        <route edges="51962098#9 c5g c5f 51962391#0 51962391#1 53960640#3 53960640#4 g20d g20c g20b g20a g20a0 x24235343522fs 107261008#2 107261009#0 107261009#1 107261009#2 107261009#3 107261009#4 107261009#5 107261009#6 e15 527480048 51962346#0 51962346#1 579739888#0 579739888#1 579739888#2 579739888#3 579739888#4 579739890#0 579739890#1 579739890#2 579739890#3 579739890#4 579739890#5 579739890#6 -51962368#0 51962368#0"/>
    </vehicle>
    <vehicle id="117" type="type1" depart="117.00">
        <route edges="-51962489#1 -51962489#0 203820096#2 203820096#3 203820096#4 203820096#5 203820096#6 203820096#7 203820096#8 203820096#9 203820096#10 203820096#11 203820096#12 203820096#13 203820096#14 203820096#15 203820096#16 203820096#17 203820096#18 203820096#19 203820096#20 203820096#21 203820096#22 203820096#23 203820096#24 203820096#25 203820096#26 203820096#27 203820096#28 203820096#29 h6 h7 h8 h9 h10 310090075#7 310090075#8 310090075#9 310090075#10 -409619708 228111190#0 -51961747#1 -51961747#0 -51961748#2 -51961748#1 -51961748#0 51961746#2 -51961746#2"/>
    </vehicle>
    <vehicle id="118" type="type1" depart="118.00">
        <route edges="a4 51962516#3 g19 g20 g21 g22 y6 y5 y4 v1 v0 v0a 51962391#5 51962391#6 51962391#7 51962391#8 51962391#9 51962391#10 51962391#11 51962391#12 51962391#13 51962576#0 -51962579#0"/>
    </vehicle>
    <vehicle id="119" type="type1" depart="119.00">
        <route edges="51962098#7 51962200#0 51962102#2 106704914#8 106704914#9 106704914#10 106704914#11 106704914#12 107379321#1 107379321#2 107379321#3 c0 772000483 142988873#0 142988873#1 142988873#2 b22 b21 b20 b19 107481781#1 107481781#2 107481781#3 g7a 107481781#5 a16 a17 a18 a19 a20 a21 u1 u2 h1 h2 h2a -51962170#1 51962170#1"/>
    </vehicle>
    <vehicle id="120" type="type1" depart="120.00">
        <route edges="203827231#0 j20b j21 j22 j23 245184773#1 245184773#2 911633778 52529620#1 52529620#2 52529620#3 52529620#4 772000481 109190298#0 109190298#1 109190298#2 109190298#3 107379321#3 107379321#4 107379321#5 107379321#6 107379321#7 107260746#0 107260746#1 107260746#2 107260746#3 107260746#4 107260746#5 107260746#6 107259946#0 385748870 385748877#0 369948713#1 -51962190#3 -51962190#2 -51962190#1 51961873 556607105 555853982 51962063#4 107259960#0 107259960#1 231511940 -51962230#5 -51962230#4 -51962046#1 51962046#1"/>
    </vehicle>
    <vehicle id="121" type="type1" depart="121.00">
        <route edges="51961458#0 -51961793#1 -51961793#0 -203820096#28 -203820096#27 -203820096#26 -203820096#25 -203820096#24 -203820096#23 -203820096#22 -203820096#21 -203820096#20 -203820096#19 -203820096#18 -203820096#17 -203820096#16 -203820096#15 -203820096#14 f6a f6 f7 f8 f9 e8 e9 e10 e11 e12 e13 e14 e15 e16 e17 e18 e19 e20 e20a -51962546#1 e21a"/>
    </vehicle>
    <vehicle id="122" type="type1" depart="122.00">
        <route edges="-51962409#0 51962448#2 i6b 51962421#1 e6b 51962416#3 -51962439#3 51961461#1 -365224885#5 -365224885#4 -365224885#3 -51962437#1 51962437#1"/>
    </vehicle>
    <vehicle id="123" type="type1" depart="123.00">
        <route edges="-51962548 51962553#4 51962504#0 51962562#7 51962400#0 51962400#1 51962393#0 51962394#0 51962394#1 51962394#2 -51962527 51962403#0 51962403#1 51962403#2 51962403#3 51962403#4 51962403#5 c14c c14a 365224885#1 f14b 365224885#3 365224885#4 365224885#5 365224885#6 365224885#7 51962416#6 51962434#0 e5a 364715677#0 i4 i3 i2 i1 u2 h1 h2 h3 h4 h5 h6 h7 h8 h9 h10 310090075#7 310090075#8 310090075#9 310090075#10 -409619708 228111190#0 228111190#1 228111190#2 -164214138#15 -164214138#14 -164214138#13 -164214138#12 -164214138#11 -164214138#10 -164214138#9 -164214176#4 -164214176#3 -164214158#2 -164214158#1 -746746167#2 746747182 200374730#1"/>
    </vehicle>
    <vehicle id="124" type="type1" depart="124.00">
        <route edges="51962365#3 51962365#4 51962365#5 51962471#0 51962471#1 51962471#2 51962471#3 51962471#4 203820096#10 203820096#11 203820096#12 f6 f7 f8 f9 f10 f11 f12 f13 f14 f15 f16 f17 f18 f19 f20 f21 g15 g16 g17 g18 g19 g19a 51962522#1 51962522#2 51962522#3 51962522#4 51962522#5 51962522#6 51962522#7 51962522#8 409617665#1 409617665#2 364713270#1 364713270#2 364713270#3 364713270#4 364713270#5 52013789#4 52013789#5 52013789#6 52013789#7 107259941#0 107259941#1 107259941#2"/>
    </vehicle>
    <vehicle id="125" type="type1" depart="125.00">
        <route edges="107373857#14 107373857#15 51962127#0 51962127#1 51962127#2 51962127#3 200501955#5 c0b c0a c1 c2 c3 c4a 106704913#2 51962205#2 107601803#0 107601803#1 107601803#2 107601803#3 51962103#3 51962391#0 51962391#1 51962391#2 v0c v0b 52013531#3 51962380#2 51962380#3 51962380#4 51962500#0 51962500#1 51962500#2 51962500#3"/>
    </vehicle>
    <vehicle id="126" type="type1" depart="126.00">
        <route edges="-365033182#9 365033182#9 365033182#10 107373857#24 107373857#25 107373857#26 107373857#27 107373857#28 364714300#0 364714300#1 364714300#2"/>
    </vehicle>
    <vehicle id="127" type="type1" depart="127.00">
        <route edges="y3 52013531#0 v0 v0a x4a x2e"/>
    </vehicle>
    <vehicle id="128" type="type1" depart="128.00">
        <route edges="-365224885#3 365224885#3 -51961467#6 51962442#2 -51962442#2"/>
    </vehicle>
    <vehicle id="130" type="type1" depart="130.00">
        <route edges="907847247#5 907847247#0 907847247#1 907847247#2 907847250 907847246"/>
    </vehicle>
    <vehicle id="131" type="type1" depart="131.00">
        <route edges="164214160#1 164214160#2 164214160#3 -51961762#13 -51961762#12 -51961762#11 -51961762#10 -51961762#9 -51961762#8 -51961762#7 51961489#0 51961489#1 51961489#2 51961489#3 51961489#4 -200176581#4 -200176581#3 364716382#0 364716382#1 364716382#2 149638074#0 379488439#5 379488439#6 379488439#7 379488439#8 b17b b16b b15b b14b b13b b12b j9 j10 j11 j12 j13 j14 j15 j16 j17 j18 b19b 772000484#0 772000484#1 772000484#2 107644624#0 107644624#1 107644624#2 107644624#3 107644624#4 107379321#5 107379321#6 107379321#7 107260746#0 107260746#1 107260746#2 107260746#3 107260746#4 107260746#5 107260746#6 107260746#7 107260746#8 107260746#9 107260746#10 107260746#11 107260746#12 385749388 385749391#0 385749391#1 385749391#2 51962219#0 -51962219#0"/>
    </vehicle>
    <vehicle id="132" type="type1" depart="132.00">
        <route edges="579739890#11 51962648#3 51962648#4 51962648#5 51962648#6 51962648#7 -51962469#0 -51962365#7 -51962365#6 -51962365#5 -51962365#4 -51962365#3 -51962365#2 -51962365#1 -51962365#0 51962265#0 51962265#1 51962265#2 51962265#3 51962265#4 51962265#5 51962265#6 51962265#7 -364715677#7 51962392#7 51962405#5"/>
    </vehicle>
    <vehicle id="133" type="type1" depart="133.00">
        <route edges="51962147#4 51962147#5 51962147#6 51962147#7 203827003#5 107379321#7 107379321#8 107379321#0 107379321#1 c3d 51962205#0 51962205#1 51962205#2 51962205#3 c5a c5 c6 c7 c8 c9 c10 c11 353688337#0 353688337#1 f18 f19 f20 f21 f22 f23 k1"/>
    </vehicle>
    <vehicle id="134" type="type1" depart="134.00">
        <route edges="51962306#0 51962306#1 -536297149 -228104270 51962292#9 -51961473#5 -51961473#4 -51961473#3 -51961793#6 -51961793#5 -51961793#4 -51961793#3 -51961793#2 -51961793#1 -51961793#0 203820096#29 h5b h5c 142988877#0 142988877#1 142988877#2 142988876#0 142988876#1 51961489#4 200176581#5 200176581#6 200176581#7 200176581#8 200176581#9 200176581#10 200176581#11 -164214137#1"/>
    </vehicle>
    <vehicle id="135" type="type1" depart="135.00">
        <route edges="52529620#3 52529620#4 772000481 109190298#0 109190298#1 109190298#2 109190298#3 107379321#3 107379321#4 107379321#5 107379321#6 107379321#7 107260746#0 107260746#1 107260746#2 107260746#3 107260746#4 107260746#5 107260746#6 107260746#7 107260746#8 107260746#9 107260746#10 107260746#11 107260746#12 107260746#13 107260746#14 107259941#0"/>
    </vehicle>
    <vehicle id="136" type="type1" depart="136.00">
        <route edges="51962361#0 51962349#1 -385749386#16 51962562#2 51962562#3 51962562#4 51962562#5 51962562#6 51962562#7 51962400#0 51962400#1 51962393#0 51962394#0 51962394#1 51962394#2 -51962527 51962403#0 51962403#1 51962403#2 51962403#3 51962403#4 51962403#5 c14c c14a 365224885#1 f14b 365224885#3 365224885#4 365224885#5 -51961461#1 51962439#3 -51962416#3 e6a e6 e7a"/>
    </vehicle>
    <vehicle id="137" type="type1" depart="137.00">
        <route edges="-51961776 51961725#4 -51961736#2 -51961726#0"/>
    </vehicle>
    <vehicle id="138" type="type1" depart="138.00">
        <route edges="-51961471#2 51961471#2 51961471#3 -51961458#1 -51961793#1 -51961793#0 203820096#29 h5b h5c 142988877#0 142988877#1 142988877#2 142988876#0 142988876#1 51961489#4 200176581#5 200176581#6 200176581#7 200176581#8 -831465673#2 51961761#2"/>
    </vehicle>
    <vehicle id="139" type="type1" depart="139.00">
        <route edges="-831449290 51961762#3 51961762#4 228111190#6 228111190#7 228111190#8 228111190#9 228111190#10 228111190#11 364716382#0 364716382#1 364716382#2 149638074#0 149638074#1 149638074#2 149638074#3 149638074#4 149638074#5 149638074#6 149638074#7 149638074#8 142988867#1 c0g c0f 229477270#11 51962119#9 51962119#10"/>
    </vehicle>
    <vehicle id="140" type="type1" depart="140.00">
        <route edges="51962442#3 -51961461#3 -51961461#2 -365224885#5 -365224885#4 -365224885#3 f15a f15 51962533#0 51962533#1 c12a 51962533#3 51962533#4 51962533#5 51962533#6 51962533#7 51962533#8 -51962531 -51962394#2 -51962394#1 107258442#2 -51962400#2"/>
    </vehicle>
    <vehicle id="141" type="type1" depart="141.00">
        <route edges="51962203#9 k5 k6 106704913#0 c4 c5 c6 c7 c8 c9 c10 c11 c12 c13 c14 c14b -51962382#2 -51962382#1 e12a -893597736 i12a -203820096#4 -203820096#3 51962488#0 51962488#1 579739888#3 -750471837#5"/>
    </vehicle>
    <vehicle id="142" type="type1" depart="142.00">
        <route edges="385749391#15 51962347#0 51962361#2 51962562#1 -385749386#15 -385749386#14 -385749386#13 -385749386#12 -385749386#11 -385749386#10 282397901#5 282397901#6 51961869#7 51961869#8 51961455#4 51961455#5 x4b x4a x4 y1 a1 a2 a3 53960644#2 g19a c6a -203827231#10 -203827231#9 k3a k3b 454986626#0 454986626#1 51962151#0 51962151#1 51962151#2 b21a b20a b19a b18 b17 b16 b15 b14 b13 b12 b11 b10 b9 b8"/>
    </vehicle>
    <vehicle id="143" type="type1" depart="143.00">
        <route edges="749930235#0 -188351808#2 -188351808#1 -188351808#0 51962484#2 51962484#3 c26a 51962366#3 51962366#4 f1 f2 f3 f4 f5 f6 f7 f8 f9 f10 f11 f12 f13 f14 f15 f16 f17 f18 f19 f20 f21 f22 f23 k1 k2 k3 k4 k5 k6 106704913#0 c4a 51962212#0 51962212#1 759891911 109190298#3 107379321#3 107379321#4 107379321#5 106705258#0 106705258#1 106705258#2 106705258#3 106705258#4 106705258#5 107373856#1 107373856#2 107373856#3 107373856#4 107373856#5 51962102#9 -49732158#18"/>
    </vehicle>
    <vehicle id="144" type="type1" depart="144.00">
        <route edges="215325073#1 -51962365#11 -51962365#10 -51962365#9 -51962365#8 -51962365#7 -51962365#6 51962471#0 51962471#1 51962471#2 51962471#3 51962471#4 203820096#10 203820096#11 203820096#12 f6 f7 f8a i6 i5 i4 i3 i2 i1 u2 u3 u4 j1 j2 j3 j4 j5 j6 j7 j8a j9a j10a j11a j12a j13a 164214136#11 164214136#12 164214136#13 149638074#0 149638074#1 149638074#2 149638074#3 149638074#4 149638074#5 -164214169#1 -164214169#0 -831465674#2 -831465674#1 164214182#0 164214182#1 164214182#2 -831465675#1"/>
    </vehicle>
    <vehicle id="145" type="type1" depart="145.00">
        <route edges="-142988863#0 d7a d7 d6 d5 d4 d3 d2 d1 u4 u5 u6 g1 g2 g3 g4 g5 g6 107481781#5 a16a 110998083#1 110998083#2 110998083#3 -51962416#6 -365224885#7 -365224885#6 -365224885#5 -365224885#4 -365224885#3 f15a f15 51962533#0 51962533#1 c12a 51962533#3 51962533#4 51962533#5 51962533#6 51962533#7"/>
    </vehicle>
    <vehicle id="146" type="type1" depart="146.00">
        <route edges="51962222#1 -51962222#1 -51962222#0 -385749386#1 -385749386#0 106704914#4 106704914#5 106704914#6 106704914#7 106704914#8 106704914#9 106704914#10 106704914#11 106704914#12 107379321#1 107379321#2 107379321#3 c0 772000483 142988873#0 142988873#1 142988873#2 b22 b21 b20 b19 b18 b17 b16 b15 b14 b13 b12 b11 287413563#6 j7 j8a j9a j10a j11a j12a j13a 164214136#11 164214136#12 364714300#0 364714300#1 364714300#2 364714300#3 364716378#0 364716378#1 364716378#2 364716378#3 364716378#4 364716378#5 364716378#6 364716378#7 364716378#8 364716378#9 51961745#0 51961745#1 51961745#2 -51961755#1 -51961755#0 -746746171 -746746172#1"/>
    </vehicle>
    <vehicle id="147" type="type1" depart="147.00">
        <route edges="51962484#6 -51962484#6 51962483 -51962365#4 -51962365#3 -51962365#2 -51962365#1 -51962365#0 51962265#0 51962265#1 51962265#2 51962265#3 51962265#4 51962265#5 51962265#6 51962265#7 51962265#8 51962265#9 51962265#10 -408938352#3 -408938352#2 51962292#7 51962292#8 51962292#9 -51961473#5 -51961473#4 -51961473#3 -51961473#2 -51961473#1 -51961473#0 -409619705#1 -409619705#0 -51961725#6 -51961725#5 -51961725#4 -51961725#3 -51961725#2 -51961725#1 -51961756#1 51961756#1"/>
    </vehicle>
    <vehicle id="148" type="type1" depart="148.00">
        <route edges="228111190#7 -51961764 -51961489#1 -51961489#0 51961762#7 51961762#8 -51961746#6 -51961746#5 -51961746#4 164214138#13 164214138#14 -164214138#14"/>
    </vehicle>
    <vehicle id="150" type="type1" depart="150.00">
        <route edges="b6 b5 b4 b3 b2 b1 u6 u7 u1 u2 h1 h2 h3 h4 h5 h6 h7 h8 h9 h10 310090075#7 310090075#8 310090075#9 310090075#10 -409619708 228111190#0 -51961747#1 -51961747#0 -51961748#2 -51961748#1 -746746172#0 51961746#1"/>
    </vehicle>
    <vehicle id="151" type="type1" depart="151.00">
        <route edges="579739890#3 579739890#4 579739890#5 110467768#0 107258445#5 107258445#6 107258445#7 -579739888#4 -579739888#3 -579739888#2 -579739888#1 -579739888#0 i14a i13 527480049 e13 e13a 31245344#1 31245344#2 31245344#3 31245344#4 53960644#0 x1 53960644#2 g19a 51962522#1 51962522#2 51962522#3 51962522#4 51962522#5 51962522#6 51962522#7 51962522#8 409617665#1 409617665#2 409617665#3 409617665#4 409617665#5 385748874 369948713#0 369948713#1 -51962190#3 -51962190#2 -51962190#1 51961873 556607105 555853982 -51962063#3 51962044#0"/>
    </vehicle>
    <vehicle id="152" type="type1" depart="152.00">
        <route edges="-51962134#1 51962134#1 365033182#10 107373857#24 107373857#25 107373857#26 107373857#27 107373857#28 364714300#0 364714300#1 364714300#2 364714300#3 200176581#0 200176581#1 200176581#2 200176581#3 200176581#4 200176581#5 200176581#6 200176581#7 200176581#8 -831465673#2 -51961761#1"/>
    </vehicle>
    <vehicle id="153" type="type1" depart="153.00">
        <route edges="107261009#4 107258442#0 -51962383#0 51962403#0 51962403#1 51962403#2 51962403#3 51962403#4 51962403#5 c14c c14a 365224885#1 f14b 365224885#3 365224885#4 365224885#5 365224885#6 365224885#7 51962416#6 51962434#0 51962176#0 51962176#1 51962176#2 51962176#3 a17 a18 51961475#2 g2b g2c 51962174#1 b3b b3a b2a b1a b4 b3 b2"/>
    </vehicle>
    <vehicle id="154" type="type1" depart="154.00">
        <route edges="51962575#1 110467769#3 559240869#4 559240869#5 -409565339 51962541#0 51962541#1 51962541#2 51962541#3 51962541#4 51962541#5 51962541#6 51962541#7 e21a 51962541#9 i17 i16 i15 i14 51962384 203820096#0 203820096#1 203820096#2 203820096#3 203820096#4 203820096#5 203820096#6 203820096#7 203820096#8 203820096#9 203820096#10 c21 c22 c23 c24 c25 c26 197120084#8 197120084#9 749643598 749930225#4 749930225#5 749930225#6 749930225#7 749930225#0 749930229#0 749930229#1 749930229#2 228104269#0 427363323#0 427363323#1 427363323#2 831399283#1"/>
    </vehicle>
    <vehicle id="155" type="type1" depart="155.00">
        <route edges="b20 b19 107481781#1 107481781#2 107481781#3 g7a 107481781#5 a16a 110998083#1 110998083#2 110998083#3 51962434#0 e5a 364715677#0 i5a 364715677#2 364715677#3 364715677#4 364715677#5 51962417#3 51962417#4 51962417#5 -51962436#1 -51962436#0"/>
    </vehicle>
    <vehicle id="156" type="type1" depart="156.00">
        <route edges="-51962631#2 51962631#2 51962631#3 -51962368#2 -51962368#1 -51962368#0 107258445#4 107258445#5 107258445#6 -51962466#8 51962487#0 51962487#1 51962487#2 -203820096#5 i12b i11 i10 i9 i8 f9 f10 f11 f11a 51962416#1 51962416#2 51962416#3 51962416#4 -51961464#7 -51961464#6 -51961464#5 -51961464#4"/>
    </vehicle>
    <vehicle id="157" type="type1" depart="157.00">
        <route edges="51962541#9 i17 51962553#0 e20a 51962553#2 51962553#3 51962553#4 51962553#5 51962553#6 51962553#7 51962553#8 51962553#9 365224884#0 365224884#1 51961869#0 51961869#1 51961869#2 51961869#3 51962537#0 51962537#1 51962537#2 -385749386#11 -385749386#10 -385749386#9 51962362#3 51962362#4 51962362#5 51961454#2 51961454#3 51961454#4 52013789#0 52013789#1 -51962228 -51962255#4 -51962255#3 -51962255#2 -51962255#1 95601533"/>
    </vehicle>
    <vehicle id="158" type="type1" depart="158.00">
        <route edges="203820096#12 f6 f7 f8a i6 51962421#1 e6b 51962416#3 51962416#4 51962416#5 51962416#6 51962434#0 51962176#0 51962176#1 51962176#2 51962176#3 a17 a18 51961475#2 g2b g2c 51962174#1 51962174#2"/>
    </vehicle>
    <vehicle id="159" type="type1" depart="159.00">
        <route edges="-51962189 51962189 385749390#4 385749390#5 385748873 385748872#0 385748872#1 385748872#2 51962180#5 51962180#6 51962180#7 106704914#9 106704914#10 106704914#11 106704914#12 107379321#1 c3d 51962205#0 51962205#1 51962205#2 51962205#3 c5a c5 c6 c7 c8 c9 c10 c11 c12 c13 c14 c15 c16 c17 e10"/>
    </vehicle>
    <vehicle id="160" type="type1" depart="160.00">
        <route edges="831465673#2 -200176581#8 -200176581#7 -200176581#6 -200176581#5 -200176581#4 -200176581#3 364716382#0 364716382#1 364716382#2 149638074#0 379488439#5 379488439#6 379488439#7 379488439#8 b17b b16b b15b b14b b13b b12b b11a b10 b9 b8 b7 b6 b5 b4 b3 b2 b1 u6 u7 u1 u2 u3 u4 j1"/>
    </vehicle>
    <vehicle id="161" type="type1" depart="161.00">
        <route edges="52013531#0 v0 v0b 52013531#3 51962380#2 51962380#3 51962380#4 51962380#5 51962380#6 51962380#7 51962380#8 51962380#9 51962380#10 51962380#11 365224884#0 365224884#1 51962369#0 -907847246 907847251 907847247#4 907847247#5 907847247#0 907847249"/>
    </vehicle>
    <vehicle id="162" type="type1" depart="162.00">
        <route edges="-164214176#3 164214158#3 164214158#4 164214158#5 -51961746#2 51961748#0 51961748#1 51961748#2 51961747#0 51961747#1 51961747#2 d12a d12 d11 d10 d9 d8 -51961767 h5a -203820096#28 -203820096#27 -203820096#26 -203820096#25 -203820096#24 -203820096#23 -203820096#22 -203820096#21 -203820096#20 -203820096#19 -203820096#18 -203820096#17 -203820096#16 -203820096#15 -203820096#14 f6a -203820096#12 -203820096#11 c20a -51962471#4 51962471#4"/>
    </vehicle>
    <vehicle id="163" type="type1" depart="163.00">
        <route edges="107644622#2 107644622#3 107644622#4 409566590 107627053#2 527479866 527479868#0 527479868#1 527479868#2 409566598 i18 i17 i16 i15 i14 i13 i12 893597736 e12b"/>
    </vehicle>
    <vehicle id="164" type="type1" depart="164.00">
        <route edges="51962631#0 51962631#1 51962631#2 51962631#3 -51962368#2 -51962368#1 -51962368#0 107258445#4 107258445#5 107258445#6 -51962466#8 51962487#0 51962487#1 51962487#2 -203820096#5 i12b i11 i10 i9 i8 i7 i6 i5 i4 i3 i2 i1 u2 u3 u4 j1 j2 j3 j4 j5 j6 j7 j8a j9a j10a j11a j12a j13a 164214136#11 164214136#12 164214136#13 149638074#0 149638074#1 149638074#2 149638074#3 149638074#4 149638074#5 -164214169#1 -164214169#0 -831465674#2 164214178#0 164214178#1 164214178#2 831465675#1"/>
    </vehicle>
    <vehicle id="165" type="type1" depart="165.00">
        <route edges="52013531#0 v0 v0a x4a x2e x2d x2c x2b x2a 51961455#13 c12c c12 c13 c14 c15 c16 c17 c18 c19 c20 c21 c22 c23 c24 c25 c26 197120084#8 197120084#9 749643598 749930225#4 749930225#5 749930225#6 749930225#7 749930225#0 749930229#0 51962286#0 51962286#1 765979054#0 765979054#1 -765979054#1"/>
    </vehicle>
    <vehicle id="166" type="type1" depart="166.00">
        <route edges="51962561#1 51962504#2 51962540#9 203820100 51962532#0 51962532#1 51962532#2 51962500#6 51962500#7 51962524#0 51962524#1 51962524#2 51962524#3 51962516#0 51962516#1 x2 a5 a6 a7 a8 a9 a10 a11 a12 a13 a14 a15 a16 a17 a18 a19 a20 a21 u1 u2 h1 h2 h3 h4 h5 h5a 51961793#0 51961470#1 -51961471#4"/>
    </vehicle>
    <vehicle id="167" type="type1" depart="167.00">
        <route edges="890761754 51961472 -203820096#25 -203820096#24 -203820096#23 784335903#0 784335903#1 -51962418#1 -51962418#0 -784334542 51962265#10 -408938352#3 -408938352#2 -408938352#1 784335904"/>
    </vehicle>
    <vehicle id="168" type="type1" depart="168.00">
        <route edges="-51962466#8 51962487#0 51962487#1 51962487#2 -203820096#5 i12b 893597736 e12b 51962382#1 51962382#2 c14c c14a 365224885#1 f15 f16 f17 f18 f19 f20 f21 f22 f23 k1 k2 k3 k3a k3b 454986626#0 454986626#1 52529620#0 52529620#1 52529620#2 52529620#3 52529620#4"/>
    </vehicle>
    <vehicle id="169" type="type1" depart="169.00">
        <route edges="364715682 -784335903#0 -203820096#22 -203820096#21 51961452#0 -784334027#0 51961450#0 51961450#1 i2a i1 u2 u3 u4 u5 u6 g1 g2 g3 g4 g5 g6a 107481780#2 107481780#3 107481780#4 b19b 772000484#0 772000484#1 772000484#2 107644624#0 107644624#1 107644624#2 107644624#3 107644624#4 107379321#5 107379321#6 107379321#7 107260746#0 107260746#1 107260746#2 107260746#3 107260746#4 107260746#5 107260746#6 107260746#7 107260746#8 107260746#9 107260746#10"/>
    </vehicle>
    <vehicle id="170" type="type1" depart="170.00">
        <route edges="51962574#1 51962550#0 51962550#1 51962550#2 51962550#3 51962550#4 51962550#5 51962550#6 51962550#7 559240869#5 -409565339 51962541#0 51962541#1 51962541#2 51962541#3 51962541#4 51962541#5 51962541#6 51962541#7 e21a 51962541#9 i17 i16 i15 i14 51962384 203820096#0 203820096#1 203820096#2 203820096#3 203820096#4 203820096#5 203820096#6 203820096#7 203820096#8 203820096#9 203820096#10 c21 c22 c23 c24 c24a 51962476 -51962476"/>
    </vehicle>
    <vehicle id="171" type="type1" depart="171.00">
        <route edges="-164214174#2 164214174#2 164214174#3 164214169#1 149638074#6 149638074#7 149638074#8 142988867#1 c0g c0f c0e c0d c0c c0b c0a c1 c2 c3 c4 c5 c6 c7a c7b g18 g19 g20 g20a0 x24235343522fs 107261008#2 107261009#0 107261009#1 107261009#2 107261009#3 107261009#4 107261009#5 107261009#6 e15 e16 e17 e18 e19 e20 e21 e22 409566603 107627053#0 107627053#1 107627053#2 409566600 107627047#0 107627047#1 107627047#2 543905042 -51962369#4"/>
    </vehicle>
    <vehicle id="172" type="type1" depart="172.00">
        <route edges="107601803#2 51962108#1 51962108#2 51962108#3 106704914#10 106704914#11 106704914#12 107379321#1 107379321#2 107379321#3 c0 772000483 51962119#5 51962119#6 51962119#7 51962119#8 51962119#9 51962119#10 51962119#11 51962119#12 888512947#0 -164214181#3 -164214181#2 -164214181#1 -164214181#0 164214179#1 164214179#2 -164214182#3 831465675#2"/>
    </vehicle>
    <vehicle id="173" type="type1" depart="173.00">
        <route edges="h7a 759897917#0 759897917#1 d9 d8 -51961767 h5a -203820096#28 -203820096#27 -203820096#26 -203820096#25 -203820096#24 -203820096#23 784335903#0 784335903#1 -51962418#1 -51962418#0 -784334542 -51962265#9 -51962265#8 408938353#0 51962278#2 51962278#3 51962278#4 51962278#5 51962278#6 749643446#2 -203820104#1 -203820104#0 409564372#0 409564372#1 409564372#2 -890761697"/>
    </vehicle>
    <vehicle id="174" type="type1" depart="174.00">
        <route edges="51962241 107492531 341350346#0 341350346#1 120720281#1 120720281#2 120720281#3 574239323#3 574239323#0 234362349 259084398 259084399 51962242#0 51962242#1 51962242#2 51962242#3 385749387 107259941#4 -51962063#4 -51962063#3 -51962063#2 -51962063#1 -51962063#0 771998436 107373857#0 107373857#1 107373857#2 107373857#3 107373857#4 107373857#5 107373857#6 107373857#7 107373857#8 107373857#9 107373857#10 107373857#11 107373857#12 107373857#13 107373857#14 51961909#2 51961909#3 49732158#4 -51961983#1 200501965#3"/>
    </vehicle>
    <vehicle id="175" type="type1" depart="175.00">
        <route edges="j16a -51962148#5 -51962148#4 b14 b8a b2a b1a b4 b3 b2 b1 u6 u7 u1 u2 h1 h2 h3 h4 h5 h5a 51961793#0 51961793#1 51961793#2 51961793#3 51961793#4 51961793#5 51961793#6 51961473#3 51961473#4 51961473#5 51961473#6"/>
    </vehicle>
    <vehicle id="176" type="type1" depart="176.00">
        <route edges="e9 c18 i9 i8 i7 i6 i5 i4 i3 i2 i1 u2 h1 h2 h3 h4 h5 h6 h6a -409619704#1 -409619704#0 -409619705#1 -409619705#0 -51961725#6"/>
    </vehicle>
    <vehicle id="177" type="type1" depart="177.00">
        <route edges="i15 51962346#0 51962557#0 -332419085#1 i16a 51962553#0 e20a 51962553#2 51962553#3 51962553#4 51962553#5 51962553#6 51962553#7 51962553#8 51962553#9 365224884#0 365224884#1 51962369#0 -907847246 907847251 907847247#4 -385749386#17 -51962349#1"/>
    </vehicle>
    <vehicle id="178" type="type1" depart="178.00">
        <route edges="h1a 51961452#3 h2 h3 h4 h5 h6 h7 759897917#1 -759897917#1"/>
    </vehicle>
    <vehicle id="179" type="type1" depart="179.00">
        <route edges="-51961473#0 409619704#0 409619704#1 759897917#0 759897917#1 d9 d8 d7 d6 d5 d4 d3 231492989 h2 245084749"/>
    </vehicle>
    <vehicle id="180" type="type1" depart="180.00">
        <route edges="51962466#5 -51962466#5 -51962486#3 51962487#1 51962487#2 -203820096#5 i12b 893597736 e12b 51962382#1 51962382#2 c14c c14a 365224885#1 f15 f16 f17 f18 f19 f20 f21 f22 f23 k1 k2 k3 k4 k5 k6 106704913#0 c4a 51962212#0 51962212#1 759891911 109190298#3 107379321#3 107379321#4 107379321#5 106705258#0 106705258#1 106705258#2 106705258#3 106705258#4 107373857#8 907335051#1 107373856#0"/>
    </vehicle>
    <vehicle id="181" type="type1" depart="181.00">
        <route edges="51962119#8 51962119#9 197120074#0 197120074#1 197120074#2 197120074#3 108231935#5 108231935#6 108231935#7 149638074#15 149638074#16 107373856#0 106705258#6 49732158#14"/>
    </vehicle>
    <vehicle id="182" type="type1" depart="182.00">
        <route edges="197120074#1 197120074#2 197120074#3 197120074#4 197120074#5 197120074#6 197120074#7 907335052#0 907335052#1 907335052#2 907335052#3 907335052#4 51961895#4"/>
    </vehicle>
    <vehicle id="183" type="type1" depart="183.00">
        <route edges="-52564289 -49732158#18 51962180#1 51962180#2 51962180#3 51962180#4 51962180#5 51962180#6 51962180#7 106704914#9 106704914#10 106704914#11 106704914#12 107379321#1 107379321#2 107379321#3 c0 772000483 142988873#0 142988873#1 142988873#2 b22 b21 b20 b19 107481781#1 107481781#2 107481781#3 g7a 107481781#5 a16a 110998083#1 110998083#2 110998083#3 51962434#0 e5a 364715677#0 i5a 364715677#2 364715677#3 364715677#4 364715677#5 51962417#3"/>
    </vehicle>
    <vehicle id="184" type="type1" depart="184.00">
        <route edges="-110467769#3 110467769#3 559240869#4 559240869#5 -409565339 51962541#0 51962541#1 51962541#2 51962541#3 51962541#4 51962541#5 51962541#6 51962541#7 e21a 51962541#9 i17 i16 i15 i14 51962384 203820096#0 203820096#1 203820096#2 203820096#3 203820096#4 203820096#5 203820096#6 203820096#7 203820096#8 203820096#9 203820096#10 203820096#11 203820096#12 203820096#13 203820096#14 203820096#15 203820096#16 203820096#17 203820096#18 203820096#19 203820096#20 203820096#21 203820096#22 203820096#23 203820096#24 203820096#25 203820096#26 203820096#27 203820096#28 203820096#29 h6 h7 h8 h9 h10 -759897470#0 d12"/>
    </vehicle>
    <vehicle id="185" type="type1" depart="185.00">
        <route edges="51961725#0 51961725#1 51961726#0 -51961736#1 -51961736#0 -409619708 d13 d12 d11 d10 d9 d8 -51961767 h5a -203820096#28 -203820096#27 -203820096#26 -203820096#25 -203820096#24 -203820096#23 -203820096#22 -203820096#21 -203820096#20 -203820096#19 -203820096#18 -364715677#4 -51962407#4 -51962407#3 -51962409#0 51962448#2 51962448#3"/>
    </vehicle>
    <vehicle id="186" type="type1" depart="186.00">
        <route edges="51962484#8 51962484#9 215325073#0 215325073#1 -51962365#11 -51962365#10 51962365#10"/>
    </vehicle>
    <vehicle id="187" type="type1" depart="187.00">
        <route edges="164214138#8 164214165 164214172#0 164214172#1 164214172#2 -51961762#9 -51961762#8 -51961762#7 51961489#0 51961489#1 51961489#2 51961489#3 51961489#4 -200176581#4 -200176581#3 364716382#0 364716382#1 364716382#2 149638074#0 379488439#5 379488439#6 379488439#7 379488439#8 b17b b16b b15b b14b b13b b12b b11a b10 b9 b8 b7 b6 b5 b4 b3 b2 b1 u6 u7 e1 e2 e3 e4 364715677#0 -364715677#0"/>
    </vehicle>
    <vehicle id="188" type="type1" depart="188.00">
        <route edges="51962361#11 51962227#0 51962227#1 53960640#0 364713041 364713037 c5h c5g c5f c5e 51962108#0 107601803#3"/>
    </vehicle>
    <vehicle id="189" type="type1" depart="189.00">
        <route edges="107373856#7 107373856#8 51962058#5 107373857#0 107373857#1 107373857#2 107373857#3 107373857#4 107373857#5 107373857#6 107373857#7 107373857#8 107373857#9 107373857#10 107373857#11 107373857#12 107373857#13 107373857#14 107373857#15 107373857#16 107373857#17 107373857#18 107373857#19 107373857#20 107373857#21 107373857#22 107373857#23 107373857#24 107373857#25 107373857#26 107373857#27 107373857#28 364714300#0 364714300#1 364714300#2 364714300#3 364716378#0 364716378#1 364716378#2 364716378#3 364716378#4 364716378#5 364716378#6 364716378#7 364716378#8 364716378#9 364716378#10 d12a 759897470#0 h10a 759897470#2"/>
    </vehicle>
    <vehicle id="190" type="type1" depart="190.00">
        <route edges="51962452 -51962452 -51962448#3 i6b 51962421#1 e6b 51962416#3 -51962439#3 -51962439#2 -51962439#1 f14a f14 f15 f16 f17 f18 f19 f20 f21 g15 g16 g17 g18 g19 g19a 51962522#1 51962522#2 51962522#3 51962522#4 51962522#5 51962522#6 51962522#7 51962522#8 409617665#1 409617665#2 364713270#1 364713270#2 364713270#3 364713270#4 364713270#5 52013789#4 52013789#5 52013789#6 52013789#7 107259941#0 107259941#1 107259941#2 107259941#3"/>
    </vehicle>
    <vehicle id="191" type="type1" depart="191.00">
        <route edges="107262525#1 107262525#2 142988867#0 142988867#1 107373857#17 107373857#18 107373857#19 107373857#20 107373857#21 -200176602#3 -200176602#2 b20b -200176602#0 b19 107481781#1 107481781#2 107481781#3 g7a 107481781#5 a16a 110998083#1 110998083#2 110998083#3 51962434#0 e5a 364715677#0 i5a 364715677#2 364715677#3 364715677#4 203820096#18 203820096#19"/>
    </vehicle>
    <vehicle id="192" type="type1" depart="192.00">
        <route edges="200502306#2 -200502306#2 149638074#14 149638074#15 149638074#16 107373856#0 107373856#1 203827003#1 107373857#7 106705258#5"/>
    </vehicle>
    <vehicle id="193" type="type1" depart="193.00">
        <route edges="-51961762#11 -51961762#10 -51961762#9 -51961762#8 -51961762#7 51961489#0 51961489#1 51961489#2 51961489#3 51961489#4 -200176581#4 -200176581#3 364716382#0 364716382#1 364716382#2 149638074#0 379488439#5 379488439#6 379488439#7 379488439#8 b17b b16b b15b b14b b13b b12b j9 j10 j11 j12 j13 j14 j15 j16 j17 j18 j19 j20 j20a 203827231#1 203827231#2 203827231#3 203827231#4 203827231#5 203827231#6"/>
    </vehicle>
    <vehicle id="194" type="type1" depart="194.00">
        <route edges="f11a f12a f12 767992761#0 767992761#1 c16a 51962398#1 51962398#2 51962398#3 51962398#4 51962398#5 51962398#6 51962398#7 107261009#4 107261009#5 107261009#6 e15 e16 e17 e18 e19 e20 e20a 51962553#2 51962553#3 51962553#4 51962553#5 51962553#6 51962553#7 51962553#8 51962553#9 365224884#0 365224884#1 51962369#0 51962369#1"/>
    </vehicle>
    <vehicle id="195" type="type1" depart="195.00">
        <route edges="b4a b14a 51962148#4 j15a 51962148#6 51962148#7 51962148#8 51962148#9"/>
    </vehicle>
    <vehicle id="197" type="type1" depart="197.00">
        <route edges="-107576489 107576489 51962226#2 51962226#3 51962380#0 51962380#1 51962380#2 51962380#3 51962380#4 51962380#5 51962380#6 51962380#7 51962380#8 51962380#9 51962380#10 51962380#11 365224884#0 365224884#1 51962369#0 51962369#1 51962369#2 -910430792"/>
    </vehicle>
    <vehicle id="198" type="type1" depart="198.00">
        <route edges="229477270#3 229477270#4 229477270#5 229477270#6 229477270#7 108231935#4 108231935#5 108231935#6 108231935#7 108231935#8 49732158#9 49732158#10 49732158#11 51961938"/>
    </vehicle>
    <vehicle id="199" type="type1" depart="199.00">
        <route edges="51962311 51962290#2 51962290#3 51962306#1 -536297149 -228104270 51962292#9 -51961473#5 -51961473#4 -51961473#3 -51961793#6 -51961793#5 -51961793#4 -51961793#3 -51961793#2 -51961793#1 -51961793#0 203820096#29 h5b h5c 142988877#0 142988877#1 142988877#2 142988876#0 228111190#10 228111190#11 364716382#0"/>
    </vehicle>
</routes>
